192
# CELL(abcABC):   12.42000    12.42000    12.42000    90.00000    90.00000    90.00000  Step:       51840  Bead:       0 positions{angstrom}  cell{angstrom}
       O -2.84317e+00  6.54151e+00  1.02828e+01
       D  4.04666e+00  1.47718e+01  4.32524e+00
       D -3.70560e+00  6.10469e+00  1.01378e+01
       O  8.39113e+00  4.30010e+00  6.10348e+00
       D  2.13038e+00  8.84731e+00  1.46842e+01
       D  4.06680e+00  1.81055e+01 -1.07082e+00
       O  2.17555e+01  2.11619e+00  4.36036e+00
       D -1.27927e+00 -2.38729e+00 -1.24715e-01
       D  1.76863e-01  2.42577e+01  5.77197e+00
       O  1.66594e+01  6.42869e-01  2.58770e-02
       D  1.18756e+01  8.13254e+00  7.51003e+00
       D  1.98124e+00  6.52814e+00  1.74005e+00
       O  8.38304e+00  9.20880e+00  9.96797e+00
       D -1.31285e+00  9.94738e+00  1.46399e+01
       D  3.81421e+00  1.49007e+01  9.89542e+00
       O  2.56620e+00 -4.28345e+00  8.86141e+00
       D  1.31395e+01  2.79383e+00 -8.65553e+00
       D  7.98459e+00  1.23913e+01 -1.21345e+01
       O  7.19976e+00  1.28943e+01 -1.17906e+01
       D  2.52635e+01  3.68382e+00  7.46616e+00
       D -5.01271e-01  1.89143e+01  1.97906e+00
       O  5.65800e+00  1.65374e+01 -9.83094e+00
       D  5.44420e+00  1.35990e+01  6.03471e+00
       D  1.51061e+01  1.96613e+00 -4.78283e+00
       O  8.65559e+00  1.69546e+01  2.42088e+00
       D  2.87570e+00  3.51835e+00  1.64023e+01
       D  3.03133e+00  6.12608e+00  9.02756e+00
       O -8.64482e-01  1.67248e+01  6.62333e+00
       D -1.09024e+00 -8.97507e-01  4.27470e-01
       D -1.73007e+00  6.40573e+00  3.09779e+00
       O  1.10647e+01  1.33343e+01  7.65381e+00
       D  4.50143e+00 -4.96046e+00  1.88633e+00
       D  8.39204e-01 -8.38874e+00  2.38433e+01
       O -1.37540e+00  6.79993e+00  2.23029e+00
       D  2.09381e+01  1.87194e+00  3.93516e+00
       D  1.12332e+01  1.30828e+01  6.74059e+00
       O  1.55719e+01  1.07628e+01  1.05655e+01
       D -1.56379e+00  1.61602e+01  7.03350e+00
       D -5.95492e+00 -1.13316e+01 -8.55418e+00
       O  1.69128e+01 -2.28753e+00  7.47565e+00
       D  4.98551e+00 -5.92382e+00 -6.80890e+00
       D  5.16706e+00  1.06234e+01  1.32082e+01
       O -2.63791e+00  1.66583e+01  2.43603e+01
       D  1.58264e+01  6.69282e+00  5.84560e+00
       D  9.51716e+00  6.62842e+00  4.84331e+00
       O -1.16968e+00  2.13071e+01  1.06010e+01
       D  1.03402e+01  8.18781e-01  4.51231e+00
       D -1.49671e+01  1.57152e+01  8.74164e+00
       O  1.56781e+01  1.36552e+00 -4.28487e+00
       D -3.94988e+00  6.98082e+00  1.31093e+01
       D  9.53718e+00  7.29572e+00 -5.03307e+00
       O  1.74523e+01  1.06885e+00  5.14212e+00
       D  2.66927e+01  4.18617e+00  8.11539e+00
       D  1.60744e+01  2.54818e-01  1.31618e+01
       O  1.08149e+01  1.49841e+01  1.39122e+01
       D  6.24123e+00  1.71420e+00 -4.16357e+00
       D -2.77031e+00  7.11881e+00 -6.00266e-01
       O  4.39837e+00  5.18670e+00  1.20643e+01
       D  4.77385e+00  1.61269e+01 -9.55858e+00
       D  2.96532e+00  3.51929e+00  1.25206e+01
       O  5.92472e+00  8.60185e-01 -4.44653e+00
       D  1.29094e+01  7.64138e+00  6.44298e+00
       D  7.76063e+00  4.99299e+00  5.99084e+00
       O  6.94831e+00  1.82790e+01 -4.00012e+00
       D  2.16507e+01  2.89254e+00  4.96726e+00
       D  1.97464e+00 -4.50069e+00  9.66115e+00
       O -5.52649e+00  1.92442e+01  1.34585e+01
       D  5.28139e+00  9.37401e+00  1.21522e+01
       D  1.50818e+01  1.01802e+00 -3.59240e+00
       O  1.49002e+01  1.19111e+01  2.01722e+00
       D  8.52812e-01  1.28189e+01 -1.52800e+00
       D  6.00945e+00  1.62368e+01 -1.06938e+01
       O  1.60431e+01  5.40322e+00  8.66944e+00
       D  1.01661e+01  1.33035e+01  1.11577e+01
       D  1.71468e+00  1.35905e+01 -5.74349e-01
       O  2.50626e+01  1.06164e+00  2.86192e+00
       D  7.66022e+00 -3.25058e+00  8.17495e+00
       D  2.49578e+00  1.14195e+01  1.08028e+01
       O  6.92544e+00  2.85170e+00 -2.84814e+00
       D  1.52961e+01  1.19462e+01  2.94002e+00
       D -2.35825e+00  1.74661e+01  1.14787e+01
       O -1.55598e+01  1.53180e+01  8.03478e+00
       D -1.26507e+00  1.76206e+01  6.39608e+00
       D  1.09977e+01  1.37469e+01  1.22172e+01
       O  5.49882e+00 -3.90689e+00 -1.46509e+01
       D -1.67015e+00 -5.73334e-01  4.04394e+00
       D  7.79413e+00  2.34897e+00 -2.79637e+00
       O  2.60197e+01  3.45942e+00  8.11047e+00
       D  1.93803e+01  6.64635e+00  4.02370e+00
       D -1.09844e+00  1.38288e-01  8.05547e+00
       O  3.97491e-01 -7.97061e+00  2.31090e+01
       D  2.89274e+00  8.82353e+00  1.60723e+01
       D -1.23977e+00  9.37991e+00  1.60643e+01
       O  4.48166e+00  1.50648e+01  1.05997e+01
       D  7.20768e+00  1.76658e+01 -3.38035e+00
       D  1.95932e+01 -5.14351e-01  6.80796e+00
       O  5.49690e+00  9.65749e+00  1.30889e+01
       D  1.49421e+01  1.09949e+01  1.82719e+00
       D  2.43469e-01  1.04212e+01  6.14577e+00
       O  1.02761e+01 -2.36952e+00  5.95936e+00
       D  1.03585e+01  6.62546e+00 -3.91837e+00
       D  9.93569e+00 -3.03027e+00  6.61942e+00
       O  2.19826e+00  3.28136e+00  1.30894e+01
       D  1.27012e+01  3.90176e+00  4.85607e+00
       D  4.93006e+00  9.74099e-01 -4.18694e+00
       O  3.60043e+00  1.53415e+01  3.64829e+00
       D  4.34521e+00  1.42399e+01  1.11762e+01
       D -6.11964e+00  1.84394e+01  1.33743e+01
       O  1.88320e+01  6.00474e+00  4.57368e+00
       D  7.18427e+00  2.91441e-02  9.06039e+00
       D  6.43250e+00  7.55590e+00  1.30507e+01
       O  6.94091e+00  1.58512e+01  1.25546e+01
       D  2.62049e+00  1.54508e+01  1.39563e+01
       D  1.39242e+01  5.68317e+00  4.45905e+00
       O  2.03830e+00  8.82237e+00  1.56565e+01
       D  8.39422e+00  4.08908e+00  7.02727e+00
       D  6.80709e+00 -2.00428e+00  6.21965e+00
       O  7.88881e-01  1.12210e+01  6.22094e+00
       D  1.95883e+00 -4.11962e+00  8.17692e+00
       D  6.34969e+00  2.35605e+00  1.01640e+01
       O  8.50292e+00 -2.14815e+00  2.50555e-01
       D  1.62346e+01 -2.04439e+00  8.10954e+00
       D  7.65976e+00 -2.51791e+00  6.44964e-01
       O -2.99486e+00  7.30447e+00  4.47769e-01
       D  1.15290e+01  1.43650e+01  1.41773e+01
       D  1.63378e+01  5.84197e+00  7.80968e+00
       O  1.67397e+01  6.72494e+00  6.30218e+00
       D  7.12958e+00  1.48933e+01  1.24911e+01
       D  7.98630e+00 -7.56918e-01  1.01308e+01
       O  7.55736e+00 -3.90551e+00  7.48568e+00
       D  1.32116e+01 -2.76034e+00  1.27835e+01
       D  7.83814e+00  2.09403e+01  5.55005e+00
       O  1.02737e+01  6.02957e+00  4.69507e+00
       D  7.24403e+00 -4.71371e+00  7.93781e+00
       D  8.71561e+00  8.20434e+00  9.88838e+00
       O  8.31372e+00  2.06277e+01  4.75679e+00
       D  1.67921e+01  9.16954e+00  7.33642e+00
       D  2.56000e+01  4.58575e-01  2.37418e+00
       O  1.04580e+01  7.05750e+00 -4.81282e+00
       D  9.15216e+00 -2.59381e+00  8.49572e-01
       D  1.68429e+01  3.08832e-01  5.22711e+00
       O  1.40740e+01 -3.16535e+00  1.27881e+01
       D  9.53242e+00  1.43218e+01  7.91944e+00
       D  1.27183e+00  5.32494e+00  1.37676e+01
       O -5.20448e+00 -1.18439e+01 -8.89827e+00
       D  9.90784e+00  5.14305e+00  4.86217e+00
       D -3.00748e-01  2.07575e+01  1.06091e+01
       O  1.32873e+01  3.73922e+00  4.10600e+00
       D  9.61396e+00 -1.60506e+00  5.99559e+00
       D -7.21970e-01 -2.03037e+00  9.85479e+00
       O  7.84923e+00  7.20754e-02  9.74683e+00
       D  1.86173e+01  5.36136e+00  3.87496e+00
       D -1.84518e+00  2.06812e+01  1.02721e+01
       O -1.45864e+00  1.33572e-01  4.68558e+00
       D  1.04530e+01  1.52932e+01  1.47442e+01
       D -1.06737e+01 -5.33885e+00  1.17517e+01
       O  1.57161e+01 -1.62154e+00  1.72717e+01
       D  1.53010e+01  9.97186e+00  1.00731e+01
       D  7.19901e+00  1.28917e+01 -1.08136e+01
       O -7.26343e-01 -1.80503e+00  5.53014e-01
       D -1.94748e+00  1.63435e+01  2.50289e+01
       D  1.61931e+01 -2.02020e+00  1.80391e+01
       O  1.60254e+00  1.89913e+01  4.82959e+00
       D  4.32931e+00 -6.54423e+00  2.14451e+00
       D  1.75322e+01  6.89620e-01  3.85431e-01
       O  7.48326e+00 -1.20409e+00  6.19566e+00
       D  8.08050e+00  1.62177e+01  2.47271e+00
       D -1.70985e+01  1.62004e+01  1.21308e+01
       O  1.21356e+00  6.28968e+00  1.36027e+01
       D  1.46680e+01 -2.69285e+00  1.21412e+01
       D  4.67481e+00  4.26867e+00  1.17077e+01
       O -1.13140e+01 -5.29846e+00  1.09570e+01
       D -1.16373e+01 -6.21724e+00  1.09061e+01
       D  2.49687e+00 -1.40023e+01  5.33304e+00
       O  1.27563e+01  8.33368e+00  7.10992e+00
       D  5.98410e+00  1.83592e+01 -3.83664e+00
       D  2.43988e+01  5.89835e-01  3.41257e+00
       O -1.82991e+00  9.86764e+00  1.54747e+01
       D  4.95708e+00 -3.17980e+00 -1.50120e+01
       D  1.38738e+01  7.20602e+00  4.12085e+00
       O  1.09983e+01  1.30595e+01  1.15604e+01
       D  8.87105e+00  2.14378e+01  4.48222e+00
       D  1.23973e+01 -2.05402e+00  8.49572e+00
       O  1.75093e+00  1.32065e+01 -1.40272e+00
       D  7.17434e+00 -1.53254e-01  4.17215e+00
       D  8.49151e+00  9.43062e+00  1.09173e+01
       O  3.90298e+00 -5.65099e+00  2.16602e+00
       D  6.37957e+00 -3.59969e+00 -1.48226e+01
       D  8.95215e+00  1.69657e+01  1.52223e+00
       O -1.85981e-01 -1.49337e+00  9.26781e+00
       D  4.24283e-01 -8.59316e+00  2.23372e+01
       D -2.24168e+00  6.88508e+00  1.23174e+00
